{%+ set mesh = (0, 5, 0, 4, 0, 3) +%}
&MESH XB={{ mesh|xb("%5.2f") }}, IJK={{ mesh|ijk(0.3, rounding='ceil') }}/
&MESH XB={{ mesh|xb("%5.2f") }}, IJK={{ mesh|ijk(0.3) }}/
&MESH XB={{ mesh|xb("%5.2f") }}, IJK={{ mesh|ijk(0.3, rounding='floor') }}/
