&OBST XB={{ (0, 5, -2, 2, 0, 3)|xb }}/
&OBST XB={{ (0, 5, -2, 2, 0, 3)|xb("%5.2f") }}/
