&MESH XB= -2.000,  2.000, -2.000,  2.000,  0.000,  4.000, IJK=40,40,40/
&TIME T_END=60/
&REAC FUEL='PROPANE'/

&SURF ID='BURNER', COLOR='RED', HRRPUA=666.67/
&OBST XB= -0.612,  0.612, -0.612,  0.612,  0.000,  0.200/
&VENT XB= -0.612,  0.612, -0.612,  0.612,  0.200,  0.200, SURF_ID='BURNER'/
