hrr: 1000
area: 1.5
depth: 0.2

&MESH XB=-2, 2, -2, 2, 0, 4, IJK=40, 40, 40/
&TIME T_END=30/
&REAC FUEL='PROPANE'/

{% set top = 0.2 %}
{% set side = area ** 0.5 %}
{% set r = (-side / 2)|round(4) %}
&SURF ID='BURNER', COLOR='RED', HRRPUA={{ (hrr / area)|round(2) }}/
&OBST XB={{ -r }}, {{ r }}, {{ -r }}, {{ r }}, {{ top - depth }}, {{ top }}/ ({{ area }} m^2)
&VENT XB={{ -r }}, {{ r }}, {{ -r }}, {{ r }}, {{ top }}, {{ top }}, SURF_ID='BURNER'/
