fds: 6.7.7

&MESH XB=  0.000,  5.000,  0.000,  4.000,  0.000,  3.000, IJK=50,40,30/
