---
x0: 0.0
x1: 5.0
y0: 0.0
y1: 4.0
z0: 0.0
z1: 3.0
res: 0.2
---

&MESH XB=0.0, 5.0, 0.0, 4.0, 0.0, 3.0,
        IJK=25, 20, 15/
