&MESH XB=  0.000,  1.000,  0.000,  1.000,  0.000,  1.000, IJK=4,4,4
&MESH XB=  1.000,  2.000,  0.000,  1.000,  0.000,  1.000, IJK=4,4,4
&MESH XB=  2.000,  3.000,  0.000,  1.000,  0.000,  1.000, IJK=4,4,4
&MESH XB=  3.000,  4.000,  0.000,  1.000,  0.000,  1.000, IJK=4,4,4
&MESH XB=  4.000,  5.000,  0.000,  1.000,  0.000,  1.000, IJK=4,4,4
&MESH XB=  5.000,  6.000,  0.000,  1.000,  0.000,  1.000, IJK=4,4,4
&MESH XB=  6.000,  7.000,  0.000,  1.000,  0.000,  1.000, IJK=4,4,4
&MESH XB=  7.000,  8.000,  0.000,  1.000,  0.000,  1.000, IJK=4,4,4
&MESH XB=  8.000,  9.000,  0.000,  1.000,  0.000,  1.000, IJK=4,4,4
&MESH XB=  9.000, 10.000,  0.000,  1.000,  0.000,  1.000, IJK=4,4,4
&MESH XB= 10.000, 11.000,  0.000,  1.000,  0.000,  1.000, IJK=4,4,4
&MESH XB= 11.000, 12.000,  0.000,  1.000,  0.000,  1.000, IJK=4,4,4
