&MESH XB=  0.000,  1.000,  0.000,  1.000,  0.000,  1.000, IJK=4,4,4
&MESH XB=  1.000,  2.000,  0.000,  1.000,  0.000,  1.000, IJK=4,4,4
&MESH XB=  2.000,  3.000,  0.000,  1.000,  0.000,  1.000, IJK=4,4,4
&MESH XB=  3.000,  4.000,  0.000,  1.000,  0.000,  1.000, IJK=4,4,4
