&MESH XB=0, 1, 0, 1, 0, 1, IJK=10, 10, 10/
