
&MESH XB= 0.00, 5.00, 0.00, 4.00, 0.00, 3.00, IJK=17,14,10/
&MESH XB= 0.00, 5.00, 0.00, 4.00, 0.00, 3.00, IJK=17,13,10/
&MESH XB= 0.00, 5.00, 0.00, 4.00, 0.00, 3.00, IJK=16,13,10/
