&MESH XB=-2, 2, -2, 2, 0, 4, IJK=40, 40, 40/
&TIME T_END=30/
&REAC FUEL='PROPANE'/

&SURF ID='BURNER', COLOR='RED', HRRPUA=666.67/
&OBST XB=  0.612, -0.612,  0.612, -0.612,  0.000,  0.200/
&VENT XB=  0.612, -0.612,  0.612, -0.612,  0.200,  0.200, SURF_ID='BURNER'/

&OBST XB=  0.612, -0.612,  0.612, -0.612,  1.000,  1.200/
&VENT XB=  0.612, -0.612,  0.612, -0.612,  1.200,  1.200, SURF_ID='BURNER'/
