&MESH XB=-2, 2, -2, 2, 0, 4, IJK=40, 40, 40/
&TIME T_END=30/
&REAC FUEL='PROPANE'/

&SURF ID='BURNER', COLOR='RED', HRRPUA=666.67/
&OBST XB=0.6124, -0.6124, 0.6124, -0.6124, 0.0, 0.2/ (1.5 m^2)
&VENT XB=0.6124, -0.6124, 0.6124, -0.6124, 0.2, 0.2, SURF_ID='BURNER'/

&OBST XB=0.6124, -0.6124, 0.6124, -0.6124, 1.0, 1.2/ (1.5 m^2)
&VENT XB=0.6124, -0.6124, 0.6124, -0.6124, 1.2, 1.2, SURF_ID='BURNER'/
