&MESH XB=-2, 2, -2, 2, 0, 4, IJK=40, 40, 40/
&TIME T_END=30/
&REAC FUEL='PROPANE'/

{% set r = area ** 0.5 / 2 %}
&SURF ID='BURNER', COLOR='RED', HRRPUA={{ (hrr / area)|round(2) }}/
&OBST XB={{ (-r, r, -r, r, 0.0, 0.2)|xb }}/
&VENT XB={{ (-r, r, -r, r, 0.2, 0.2)|xb }}, SURF_ID='BURNER'/
