# Centered at (0, 0, 0) by default
&OBST XB= -1.000,  1.000, -2.000,  2.000, -0.500,  0.500/

# Only xmax and zmin are `0`,
&OBST XB= -2.000,  0.000, -2.000,  2.000,  0.000,  1.000/

# zloc = 'max' forces the xb to be drawn below 0.0.
&VENT XB= -1.000,  1.000,  0.000,  0.000,-10.000,  0.000/

# Same as above, but formatted differntly.
&VENT XB=-1.00, 1.00, 0.00, 0.00,-10.00, 0.00/
