&OBST XB= -1.000,  1.000, -2.000,  2.000, -0.500,  0.500/
&OBST XB= -2.000,  0.000, -2.000,  2.000,  0.000,  1.000/
&VENT XB= -1.000,  1.000,  0.000,  0.000,-10.000,  0.000/
&VENT XB=-1.00, 1.00, 0.00, 0.00,-10.00, 0.00/
