&MESH XB=0.0, 5.0, 0.0, 4.0, 0.0, 3.0,
        IJK=25, 20, 15/
