{% set x0 = 0.0 %}
{% set x1 = 5.0 %}
{% set y0 = 0.0 %}
{% set y1 = 4.0 %}
{% set z0 = 0.0 %}
{% set z1 = 3.0 %}
{% set res = 0.2 %}


&MESH XB={{ x0 }}, {{ x1 }}, {{ y0 }}, {{ y1 }}, {{ z0 }}, {{ z1 }},
        IJK={{ ((x1 - x0) / res)|int }}, {{ ((y1 - y0) / res)|int }}, {{ ((z1 - z0) / res)|int }}/
