x0: 0.0
x1: 5.0
y0: 0.0
y1: 4.0
z0: 0.0
z1: 3.0
res: 0.2

&MESH XB={{ x0 }}, {{ x1 }}, {{ y0 }}, {{ y1 }}, {{ z0 }}, {{ z1 }},
        IJK={{ ((x1 - x0) / res)|int }}, {{ ((y1 - y0) / res)|int }}, {{ ((z1 - z0) / res)|int }}/
