&OBST XB=  0.000,  5.000, -2.000,  2.000,  0.000,  3.000/
&OBST XB= 0.00, 5.00,-2.00, 2.00, 0.00, 3.00/
